Circuit: * C:\Users\Rafael\Dropbox\Séptimo Semestre\Procesamiento Digital de Señales\Simulaciones\Filtro Antialias.asc

Direct Newton iteration failed to find .op point.  (Use ".option noopiter" to skip.)
Starting Gmin stepping
Gmin = 10
Gmin = 1.07374
Gmin = 0.115292
Gmin = 0.0123794
Gmin = 0.00132923
Gmin = 0.000142725
Gmin = 1.5325e-005
Gmin = 1.6455e-006
Gmin = 1.76685e-007
Gmin = 1.89714e-008
Gmin = 2.03704e-009
Gmin = 2.18725e-010
Gmin = 2.34854e-011
Gmin = 2.52173e-012
Gmin = 2.70769e-013
Gmin = 0
Gmin stepping succeeded in finding the operating point.


Date: Sun Oct 22 00:19:04 2017
Total elapsed time: 0.641 seconds.

tnom = 27
temp = 27
method = modified trap
totiter = 21587
traniter = 20979
tranpoints = 10166
accept = 10087
rejected = 79
matrix size = 29
fillins = 33
solver = Normal
Thread vector: 11.0/7.4[3] 5.0/3.9[3] 2.8/1.4[3] 0.1/0.7[1]  2592/500
Matrix Compiler1: 3.29 KB object code size  1.5/0.8/[0.5]
Matrix Compiler2: off  [0.6]/0.8/0.6

